#---------------------------------------------------------------------------
#  CTI File converted from Solution Object
#---------------------------------------------------------------------------

units(length = "cm", time = "s", quantity = "mol", act_energy = "cal/mol")

ideal_gas(name = "", 
     elements = "N Ne Ar He C H", 
     species =""" N#N [Ne] [Ar] [He] CCC CCC-2 CCC-3 CCC-4 CCC-5 
                 CCC-6 C[CH2] C[CH2]-2 C[CH2]-3 C[CH2]-4 [CH3] [CH3]-2 [H] C=C C=C-2 
                 C=C-3 [H][H] [CH2]CC [CH2]CC-2 [CH2]CC-3 [CH2]CC-4 
                 [CH2]CC-5 [CH2]CC-6 [CH2]CC-7 [CH2]CC-8 C C-2 CC CC-2 
                 CC-3 [CH]=C [CH]=C-2 [CH]=C-3 [CH]=C-4 C#C C#C-2 C#C-3 
                 [CH]=CC [CH]=CC-2 [CH]=CC-3 [CH]=CC-4 [CH]=CC-5 
                 [CH]=CC-6 [CH]=CC-7 [CH]=CC-8 C=CC C=CC-2 C=CC-3 C=CC-4 
                 C=CC-5 C=CC-6 C=CC-7 C=CC-8 C[CH]C C[CH]C-2 
                 C[CH]C-3 C[CH]C-4 C[CH]C-5 C[CH]C-6 C#CC C#CC-2 C#CC-3 
                 C#CC-4 C#CC-5 C#CC-6 C#CC-7 C#CC-8 C=[C]C C=[C]C-2 
                 C=[C]C-3 C=[C]C-4 C=[C]C-5 C=[C]C-6 C=[C]C-7 C=[C]C-8 
                 [CH2]C=C [CH2]C=C-2 [CH2]C=C-3 [CH2]C=C-4 [CH2]C=C-5 
                 [CH2]C=C-6 C=C=C C=C=C-2 C=C=C-3 C=C=C-4 C=C=C-5 
                 C=C=C-6 C#C[CH2] C#C[CH2]-2 C#C[CH2]-3 C#C[CH2]-4 
                 C#C[CH2]-5 C#C[CH2]-6 C#C[CH2]-7 C#C[CH2]-8 C#CCC C#CCC-2 
                 C#CCC-3 C#CCC-4 C#CCC-5 C#CCC-6 C#CCC-7 C#CCC-8 
                 C#CCC-9 C#CCC-10 C#CCC-11 C#CCC-12 C#CCC-13 C#CCC-14 
                 C#CCC-15 C#CCC-16 [CH]=CCC#C [CH]=CCC#C-2 [CH]=CCC#C-3 
                 [CH]=CCC#C-4 [CH]=CCC#C-5 [CH]=CCC#C-6 [CH]=CCC#C-7 
                 [CH]=CCC#C-8 [CH]=CCC#C-9 [CH]=CCC#C-10 [CH]=CCC#C-11 
                 [CH]=CCC#C-12 [CH]=CCC#C-13 [CH]=CCC#C-14 
                 [CH]=CCC#C-15 [CH]=CCC#C-16 [CH]=CCC#C-17 [CH]=CCC#C-18 
                 [CH]=CCC#C-19 [CH]=CCC#C-20 [CH]=CCC#C-21 [CH]=CCC#C-22 
                 [CH]=CCC#C-23 [CH]=CCC#C-24 [CH]=CCC#C-25 
                 [CH]=CCC#C-26 [CH]=CCC#C-27 [CH]=CCC#C-28 [CH]=CCC#C-29 
                 [CH]=CCC#C-30 [CH]=CCC#C-31 [CH]=CCC#C-32 C#CCC[CH2] 
                 C#CCC[CH2]-2 C#CCC[CH2]-3 C#CCC[CH2]-4 C#CCC[CH2]-5 
                 C#CCC[CH2]-6 C#CCC[CH2]-7 C#CCC[CH2]-8 C#CCC[CH2]-9 
                 C#CCC[CH2]-10 C#CCC[CH2]-11 C#CCC[CH2]-12 C#CCC[CH2]-13 
                 C#CCC[CH2]-14 C#CCC[CH2]-15 C#CCC[CH2]-16 
                 C#CCC[CH2]-17 C#CCC[CH2]-18 C#CCC[CH2]-19 C#CCC[CH2]-20 
                 C#CCC[CH2]-21 C#CCC[CH2]-22 C#CCC[CH2]-23 C#CCC[CH2]-24 
                 C#CCC[CH2]-25 C#CCC[CH2]-26 C#CCC[CH2]-27 C#CCC[CH2]-28 
                 C#CCC[CH2]-29 C#CCC[CH2]-30 C#CCC[CH2]-31 
                 C#CCC[CH2]-32 C#CCCC#C C#CCCC#C-2 C#CCCC#C-3 C#CCCC#C-4 
                 C#CCCC#C-5 C#CCCC#C-6 C#CCCC#C-7 C#CCCC#C-8 C#CCCC#C-9 
                 C#CCCC#C-10 C#CCCC#C-11 C#CCCC#C-12 C#CCCC#C-13 
                 C#CCCC#C-14 C#CCCC#C-15 C#CCCC#C-16 C#CCCC#C-17 C#CCCC#C-18 
                 C#CCCC#C-19 C#CCCC#C-20 C#CCCC#C-21 C#CCCC#C-22 
                 C#CCCC#C-23 C#CCCC#C-24 C#CCCC#C-25 C#CCCC#C-26 
                 C#CCCC#C-27 C#CCCC#C-28 C#CCCC#C-29 C#CCCC#C-30 C#CCCC#C-31 
                 C#CCCC#C-32 C#CCCC#C-33 C#CCCC#C-34 C#CCCC#C-35 
                 C#CCCC#C-36 [C]1=CCCC1 [C]1=CCCC1-2 [C]1=CCCC1-3 
                 [C]1=CCCC1-4 [C]1=CCCC1-5 [C]1=CCCC1-6 [C]1=CCCC1-7 
                 [C]1=CCCC1-8 [C]1=CCCC1-9 [C]1=CCCC1-10 [C]1=CCCC1-11 
                 [C]1=CCCC1-12 [C]1=CCCC1-13 [C]1=CCCC1-14 [C]1=CCCC1-15 
                 [C]1=CCCC1-16 [C]1=CCCC1-17 [C]1=CCCC1-18 
                 [C]1=CCCC1-19 [C]1=CCCC1-20 [C]1=CCCC1-21 [C]1=CCCC1-22 
                 [C]1=CCCC1-23 [C]1=CCCC1-24 [C]1=CCCC1-25 [C]1=CCCC1-26 
                 [C]1=CCCC1-27 [C]1=CCCC1-28 [C]1=CCCC1-29 
                 [C]1=CCCC1-30 [C]1=CCCC1-31 [C]1=CCCC1-32 C#CCC=C=C C#CCC=C=C-2 
                 C#CCC=C=C-3 C#CCC=C=C-4 C#CCC=C=C-5 C#CCC=C=C-6 
                 C#CCC=C=C-7 C#CCC=C=C-8 C#CCC=C=C-9 C#CCC=C=C-10 
                 C#CCC=C=C-11 C#CCC=C=C-12 C#CCC=C=C-13 C#CCC=C=C-14 
                 C#CCC=C=C-15 C#CCC=C=C-16 C#CCC=C=C-17 C#CCC=C=C-18 
                 C#CCC=C=C-19 C#CCC=C=C-20 C#CCC=C=C-21 C#CCC=C=C-22 
                 C#CCC=C=C-23 C#CCC=C=C-24 C#CCC=C=C-25 C#CCC=C=C-26 
                 C#CCC=C=C-27 C#CCC=C=C-28 C#CCC=C=C-29 C#CCC=C=C-30 
                 C#CCC=C=C-31 C#CCC=C=C-32 C#CCC=C=C-33 C#CCC=C=C-34 
                 C#CCC=C=C-35 C#CCC=C=C-36 C#CCC=C=C-37 C#CCC=C=C-38 
                 C#CCC=C=C-39 C#CCC=C=C-40 C#CCC=C=C-41 C#CCC=C=C-42 
                 C#CCC=C=C-43 C#CCC=C=C-44 C#CCC=C=C-45 C#CCC=C=C-46 
                 C#CCC=C=C-47 C#CCC=C=C-48 C#CCC=C=C-49 C#CCC=C=C-50 
                 C#CCC=C=C-51 C#CCC=C=C-52 C#CCC=C=C-53 C#CCC=C=C-54 
                 C#CCC=C=C-55 C#CCC=C=C-56 C#CCC=C=C-57 C#CCC=C=C-58 
                 C#CCC=C=C-59 C#CCC=C=C-60 C#CCC=C=C-61 C#CCC=C=C-62 
                 C#CCC=C=C-63 C#CCC=C=C-64 C=C=CC C=C=CC-2 C=C=CC-3 C=C=CC-4 
                 C=C=CC-5 C=C=CC-6 C=C=CC-7 C=C=CC-8 C=C=CC-9 
                 C=C=CC-10 C=C=CC-11 C=C=CC-12 C=C=CC-13 C=C=CC-14 
                 C=C=CC-15 C=C=CC-16 C[C]=CC C[C]=CC-2 C[C]=CC-3 C[C]=CC-4 
                 C[C]=CC-5 C[C]=CC-6 C[C]=CC-7 C[C]=CC-8 C[C]=CC-9 
                 C[C]=CC-10 C[C]=CC-11 C[C]=CC-12 C[C]=CC-13 C[C]=CC-14 
                 C[C]=CC-15 C[C]=CC-16 """, 
     reactions = "all", 
     initial_state = state(temperature = 0.001, pressure= 0.000296802185948)   )       

#---------------------------------------------------------------------------
#  Species data
#---------------------------------------------------------------------------

species(name = "N#N",
    atoms = "N:2", 
    thermo = (
       NASA(   [200.0, 1000.0], [3.531010000e+00, -1.236610000e-04,
                -5.029990000e-07, 2.435310000e-09,
                -1.408810000e-12,
                -1.046980000e+03, 2.967470000e+00]  ),
       NASA(   [1000.0, 6000.0], [2.952580000e+00, 1.396900000e-03,
                -4.926320000e-07, 7.860100000e-11,
                -4.607550000e-15,
                -9.239490000e+02, 5.871890000e+00]  )
               ),
        )

species(name = "[Ne]",
    atoms = "Ne:1", 
    thermo = (
       NASA(   [200.0, 1000.0], [2.500000000e+00, 0.000000000e+00,
                0.000000000e+00, 0.000000000e+00,
                0.000000000e+00, -7.453750000e+02,
                3.355320000e+00]  ),
       NASA(   [1000.0, 6000.0], [2.500000000e+00, 0.000000000e+00,
                0.000000000e+00, 0.000000000e+00,
                0.000000000e+00, -7.453750000e+02,
                3.355320000e+00]  )
               ),
        )

species(name = "[Ar]",
    atoms = "Ar:1", 
    thermo = (
       NASA(   [200.0, 1000.0], [2.500000000e+00, 0.000000000e+00,
                0.000000000e+00, 0.000000000e+00,
                0.000000000e+00, -7.453750000e+02,
                4.379670000e+00]  ),
       NASA(   [1000.0, 6000.0], [2.500000000e+00, 0.000000000e+00,
                0.000000000e+00, 0.000000000e+00,
                0.000000000e+00, -7.453750000e+02,
                4.379670000e+00]  )
               ),
        )

species(name = "[He]",
    atoms = "He:1", 
    thermo = (
       NASA(   [200.0, 1000.0], [2.500000000e+00, 0.000000000e+00,
                0.000000000e+00, 0.000000000e+00,
                0.000000000e+00, -7.453750000e+02,
                9.287240000e-01]  ),
       NASA(   [1000.0, 6000.0], [2.500000000e+00, 0.000000000e+00,
                0.000000000e+00, 0.000000000e+00,
                0.000000000e+00, -7.453750000e+02,
                9.287240000e-01]  )
               ),
        )

species(name = "CCC",
    atoms = "H:8  C:3", 
    thermo = (
       NASA(   [100.0, 3654.1399999999999], [1.538655130e+00, 2.995562200e-02,
                -1.327695930e-05, 2.838234140e-09,
                -2.315491580e-13,
                -1.442351330e+04, 1.532803430e+01]  ),
       NASA(   [3654.1399999999999, 5000.0], [-1.489661300e+01, 3.574490660e-02,
                -1.064476920e-05, 1.444228810e-09,
                -7.366051750e-14, 5.734065640e+03,
                1.270630830e+02]  )
               ),
        )

species(name = "CCC-2",
    atoms = "H:8  C:3", 
    thermo = (
       NASA(   [100.0, 3654.1399999999999], [1.538655130e+00, 2.995562200e-02,
                -1.327695930e-05, 2.838234140e-09,
                -2.315491580e-13,
                -1.442351330e+04, 1.532803430e+01]  ),
       NASA(   [3654.1399999999999, 5000.0], [-1.489661300e+01, 3.574490660e-02,
                -1.064476920e-05, 1.444228810e-09,
                -7.366051750e-14, 5.734065640e+03,
                1.270630830e+02]  )
               ),
        )

species(name = "CCC-3",
    atoms = "H:8  C:3", 
    thermo = (
       NASA(   [100.0, 3654.1399999999999], [1.538655130e+00, 2.995562200e-02,
                -1.327695930e-05, 2.838234140e-09,
                -2.315491580e-13,
                -1.442351330e+04, 1.532803430e+01]  ),
       NASA(   [3654.1399999999999, 5000.0], [-1.489661300e+01, 3.574490660e-02,
                -1.064476920e-05, 1.444228810e-09,
                -7.366051750e-14, 5.734065640e+03,
                1.270630830e+02]  )
               ),
        )

species(name = "CCC-4",
    atoms = "H:8  C:3", 
    thermo = (
       NASA(   [100.0, 3654.1399999999999], [1.538655130e+00, 2.995562200e-02,
                -1.327695930e-05, 2.838234140e-09,
                -2.315491580e-13,
                -1.442351330e+04, 1.602118150e+01]  ),
       NASA(   [3654.1399999999999, 5000.0], [-1.489661300e+01, 3.574490660e-02,
                -1.064476920e-05, 1.444228810e-09,
                -7.366051750e-14, 5.734065640e+03,
                1.277562310e+02]  )
               ),
        )

species(name = "CCC-5",
    atoms = "H:8  C:3", 
    thermo = (
       NASA(   [100.0, 3654.1399999999999], [1.538655130e+00, 2.995562200e-02,
                -1.327695930e-05, 2.838234140e-09,
                -2.315491580e-13,
                -1.442351330e+04, 1.602118150e+01]  ),
       NASA(   [3654.1399999999999, 5000.0], [-1.489661300e+01, 3.574490660e-02,
                -1.064476920e-05, 1.444228810e-09,
                -7.366051750e-14, 5.734065640e+03,
                1.277562310e+02]  )
               ),
        )

species(name = "CCC-6",
    atoms = "H:8  C:3", 
    thermo = (
       NASA(   [100.0, 3654.1399999999999], [1.538655130e+00, 2.995562200e-02,
                -1.327695930e-05, 2.838234140e-09,
                -2.315491580e-13,
                -1.442351330e+04, 1.532803430e+01]  ),
       NASA(   [3654.1399999999999, 5000.0], [-1.489661300e+01, 3.574490660e-02,
                -1.064476920e-05, 1.444228810e-09,
                -7.366051750e-14, 5.734065640e+03,
                1.270630830e+02]  )
               ),
        )

species(name = "C[CH2]",
    atoms = "H:5  C:2", 
    thermo = (
       NASA(   [100.0, 3601.46], [2.245823170e+00, 1.483441520e-02,
                -5.225131020e-06, 1.112158810e-09,
                -9.749812270e-14, 1.310656480e+04,
                1.313448710e+01]  ),
       NASA(   [3601.46, 5000.0], [-1.638230300e+01, 2.817004820e-02,
                -7.716506980e-06, 1.006365790e-09,
                -5.079721550e-14, 3.129343720e+04,
                1.334945620e+02]  )
               ),
        )

species(name = "C[CH2]-2",
    atoms = "H:5  C:2", 
    thermo = (
       NASA(   [100.0, 3601.46], [2.245823170e+00, 1.483441520e-02,
                -5.225131020e-06, 1.112158810e-09,
                -9.749812270e-14, 1.310656480e+04,
                1.313448710e+01]  ),
       NASA(   [3601.46, 5000.0], [-1.638230300e+01, 2.817004820e-02,
                -7.716506980e-06, 1.006365790e-09,
                -5.079721550e-14, 3.129343720e+04,
                1.334945620e+02]  )
               ),
        )

species(name = "C[CH2]-3",
    atoms = "H:5  C:2", 
    thermo = (
       NASA(   [100.0, 3601.46], [2.245823170e+00, 1.483441520e-02,
                -5.225131020e-06, 1.112158810e-09,
                -9.749812270e-14, 1.310656480e+04,
                1.313448710e+01]  ),
       NASA(   [3601.46, 5000.0], [-1.638230300e+01, 2.817004820e-02,
                -7.716506980e-06, 1.006365790e-09,
                -5.079721550e-14, 3.129343720e+04,
                1.334945620e+02]  )
               ),
        )

species(name = "C[CH2]-4",
    atoms = "H:5  C:2", 
    thermo = (
       NASA(   [100.0, 3601.46], [2.245823170e+00, 1.483441520e-02,
                -5.225131020e-06, 1.112158810e-09,
                -9.749812270e-14, 1.310656480e+04,
                1.313448710e+01]  ),
       NASA(   [3601.46, 5000.0], [-1.638230300e+01, 2.817004820e-02,
                -7.716506980e-06, 1.006365790e-09,
                -5.079721550e-14, 3.129343720e+04,
                1.334945620e+02]  )
               ),
        )

species(name = "[CH3]",
    atoms = "H:3  C:1", 
    thermo = (
       NASA(   [100.0, 1385.04], [3.908659710e+00, 1.911722540e-03,
                3.284964880e-06, -3.118565980e-09,
                7.806630630e-13, 1.628595860e+04,
                3.768963810e-01]  ),
       NASA(   [1385.04, 5000.0], [3.646032470e+00, 4.610067640e-03,
                -1.738225480e-06, 3.104854700e-10,
                -2.080596100e-14, 1.617264080e+04,
                1.057763080e+00]  )
               ),
        )

species(name = "[CH3]-2",
    atoms = "H:3  C:1", 
    thermo = (
       NASA(   [100.0, 1385.04], [3.908659710e+00, 1.911722540e-03,
                3.284964880e-06, -3.118565980e-09,
                7.806630630e-13, 1.628595860e+04,
                3.768963810e-01]  ),
       NASA(   [1385.04, 5000.0], [3.646032470e+00, 4.610067640e-03,
                -1.738225480e-06, 3.104854700e-10,
                -2.080596100e-14, 1.617264080e+04,
                1.057763080e+00]  )
               ),
        )

species(name = "[H]",
    atoms = "H:1", 
    thermo = (
       NASA(   [100.0, 2517.79], [2.500000000e+00, 1.500490180e-15,
                -2.567858080e-18, 1.486352020e-21,
                -2.692720970e-25, 2.547421780e+04,
                -4.449728960e-01]  ),
       NASA(   [2517.79, 5000.0], [2.500000000e+00, 8.365033050e-14,
                -3.911155510e-17, 7.879720090e-21,
                -5.781342370e-25, 2.547421780e+04,
                -4.449728960e-01]  )
               ),
        )

species(name = "C=C",
    atoms = "H:4  C:2", 
    thermo = (
       NASA(   [100.0, 988.46000000000004], [3.957252220e+00, -3.864120590e-03,
                3.962097270e-05, -4.355268000e-08,
                1.503474290e-11, 5.021909750e+03,
                3.603423800e+00]  ),
       NASA(   [988.46000000000004, 5000.0], [4.606868700e+00, 8.718144340e-03,
                -2.555818650e-06, 4.618592460e-10,
                -3.491071940e-14, 4.150387070e+03,
                -3.281936880e+00]  )
               ),
        )

species(name = "C=C-2",
    atoms = "H:4  C:2", 
    thermo = (
       NASA(   [100.0, 988.46000000000004], [3.957252220e+00, -3.864120590e-03,
                3.962097270e-05, -4.355268000e-08,
                1.503474290e-11, 5.021909750e+03,
                3.603423800e+00]  ),
       NASA(   [988.46000000000004, 5000.0], [4.606868700e+00, 8.718144340e-03,
                -2.555818650e-06, 4.618592460e-10,
                -3.491071940e-14, 4.150387070e+03,
                -3.281936880e+00]  )
               ),
        )

species(name = "C=C-3",
    atoms = "H:4  C:2", 
    thermo = (
       NASA(   [100.0, 988.46000000000004], [3.957252220e+00, -3.864120590e-03,
                3.962097270e-05, -4.355268000e-08,
                1.503474290e-11, 5.021909750e+03,
                4.296570980e+00]  ),
       NASA(   [988.46000000000004, 5000.0], [4.606868700e+00, 8.718144340e-03,
                -2.555818650e-06, 4.618592460e-10,
                -3.491071940e-14, 4.150387070e+03,
                -2.588789700e+00]  )
               ),
        )

species(name = "[H][H]",
    atoms = "H:2", 
    thermo = (
       NASA(   [100.0, 1868.9100000000001], [3.433023960e+00, 2.334367670e-04,
                -3.267477000e-07, 3.789737110e-10,
                -8.742877050e-14,
                -1.031229960e+03,
                -3.899447010e+00]  ),
       NASA(   [1868.9100000000001, 5000.0], [3.022380520e+00, 2.793661100e-04,
                3.049326900e-07, -8.483476290e-11,
                6.514727060e-15, -7.322689670e+02,
                -1.272347870e+00]  )
               ),
        )

species(name = "[CH2]CC",
    atoms = "H:7  C:3", 
    thermo = (
       NASA(   [100.0, 3492.3600000000001], [1.841253130e+00, 2.698220920e-02,
                -1.227190860e-05, 2.686801810e-09,
                -2.251387780e-13, 1.026598740e+04,
                1.685889300e+01]  ),
       NASA(   [3492.3600000000001, 5000.0], [-1.239800390e+00, 2.182481790e-02,
                -6.325914680e-06, 8.395606390e-10,
                -4.192203160e-14, 1.771516610e+04,
                4.316020750e+01]  )
               ),
        )

species(name = "[CH2]CC-2",
    atoms = "H:7  C:3", 
    thermo = (
       NASA(   [100.0, 3492.3600000000001], [1.841253130e+00, 2.698220920e-02,
                -1.227190860e-05, 2.686801810e-09,
                -2.251387780e-13, 1.026598740e+04,
                1.685889300e+01]  ),
       NASA(   [3492.3600000000001, 5000.0], [-1.239800390e+00, 2.182481790e-02,
                -6.325914680e-06, 8.395606390e-10,
                -4.192203160e-14, 1.771516610e+04,
                4.316020750e+01]  )
               ),
        )

species(name = "[CH2]CC-3",
    atoms = "H:7  C:3", 
    thermo = (
       NASA(   [100.0, 3492.3600000000001], [1.841253130e+00, 2.698220920e-02,
                -1.227190860e-05, 2.686801810e-09,
                -2.251387780e-13, 1.026598740e+04,
                1.685889300e+01]  ),
       NASA(   [3492.3600000000001, 5000.0], [-1.239800390e+00, 2.182481790e-02,
                -6.325914680e-06, 8.395606390e-10,
                -4.192203160e-14, 1.771516610e+04,
                4.316020750e+01]  )
               ),
        )

species(name = "[CH2]CC-4",
    atoms = "H:7  C:3", 
    thermo = (
       NASA(   [100.0, 3492.3600000000001], [1.841253130e+00, 2.698220920e-02,
                -1.227190860e-05, 2.686801810e-09,
                -2.251387780e-13, 1.026598740e+04,
                1.685889300e+01]  ),
       NASA(   [3492.3600000000001, 5000.0], [-1.239800390e+00, 2.182481790e-02,
                -6.325914680e-06, 8.395606390e-10,
                -4.192203160e-14, 1.771516610e+04,
                4.316020750e+01]  )
               ),
        )

species(name = "[CH2]CC-5",
    atoms = "H:7  C:3", 
    thermo = (
       NASA(   [100.0, 3492.3600000000001], [1.841253130e+00, 2.698220920e-02,
                -1.227190860e-05, 2.686801810e-09,
                -2.251387780e-13, 1.026598740e+04,
                1.685889300e+01]  ),
       NASA(   [3492.3600000000001, 5000.0], [-1.239800390e+00, 2.182481790e-02,
                -6.325914680e-06, 8.395606390e-10,
                -4.192203160e-14, 1.771516610e+04,
                4.316020750e+01]  )
               ),
        )

species(name = "[CH2]CC-6",
    atoms = "H:7  C:3", 
    thermo = (
       NASA(   [100.0, 3492.3600000000001], [1.841253130e+00, 2.698220920e-02,
                -1.227190860e-05, 2.686801810e-09,
                -2.251387780e-13, 1.026598740e+04,
                1.685889300e+01]  ),
       NASA(   [3492.3600000000001, 5000.0], [-1.239800390e+00, 2.182481790e-02,
                -6.325914680e-06, 8.395606390e-10,
                -4.192203160e-14, 1.771516610e+04,
                4.316020750e+01]  )
               ),
        )

species(name = "[CH2]CC-7",
    atoms = "H:7  C:3", 
    thermo = (
       NASA(   [100.0, 3492.3600000000001], [1.841253130e+00, 2.698220920e-02,
                -1.227190860e-05, 2.686801810e-09,
                -2.251387780e-13, 1.026598740e+04,
                1.685889300e+01]  ),
       NASA(   [3492.3600000000001, 5000.0], [-1.239800390e+00, 2.182481790e-02,
                -6.325914680e-06, 8.395606390e-10,
                -4.192203160e-14, 1.771516610e+04,
                4.316020750e+01]  )
               ),
        )

species(name = "[CH2]CC-8",
    atoms = "H:7  C:3", 
    thermo = (
       NASA(   [100.0, 3492.3600000000001], [1.841253130e+00, 2.698220920e-02,
                -1.227190860e-05, 2.686801810e-09,
                -2.251387780e-13, 1.026598740e+04,
                1.685889300e+01]  ),
       NASA(   [3492.3600000000001, 5000.0], [-1.239800390e+00, 2.182481790e-02,
                -6.325914680e-06, 8.395606390e-10,
                -4.192203160e-14, 1.771516610e+04,
                4.316020750e+01]  )
               ),
        )

species(name = "C",
    atoms = "H:4  C:1", 
    thermo = (
       NASA(   [100.0, 1152.3], [4.163836750e+00, -4.885637150e-03,
                2.356944700e-05, -1.952742630e-08,
                5.254561300e-12, -1.016011540e+04,
                -7.708251470e-01]  ),
       NASA(   [1152.3, 5000.0], [1.169226360e+00, 1.103020090e-02,
                -4.335336790e-06, 7.747214940e-10,
                -5.219833130e-14,
                -9.836486650e+03, 1.251061360e+01]  )
               ),
        )

species(name = "C-2",
    atoms = "H:4  C:1", 
    thermo = (
       NASA(   [100.0, 1152.3], [4.163836750e+00, -4.885637150e-03,
                2.356944700e-05, -1.952742630e-08,
                5.254561300e-12, -1.016011540e+04,
                -7.708251470e-01]  ),
       NASA(   [1152.3, 5000.0], [1.169226360e+00, 1.103020090e-02,
                -4.335336790e-06, 7.747214940e-10,
                -5.219833130e-14,
                -9.836486650e+03, 1.251061360e+01]  )
               ),
        )

species(name = "CC",
    atoms = "H:6  C:2", 
    thermo = (
       NASA(   [100.0, 1047.45], [3.657829240e+00, 2.037330050e-03,
                3.433022950e-05, -3.768265150e-08,
                1.238832850e-11, -1.168052520e+04,
                5.052937440e+00]  ),
       NASA(   [1047.45, 5000.0], [4.331087970e+00, 1.441411370e-02,
                -4.800057910e-06, 8.468031940e-10,
                -5.948891730e-14,
                -1.264156350e+04,
                -2.140622760e+00]  )
               ),
        )

species(name = "CC-2",
    atoms = "H:6  C:2", 
    thermo = (
       NASA(   [100.0, 1047.45], [3.657829240e+00, 2.037330050e-03,
                3.433022950e-05, -3.768265150e-08,
                1.238832850e-11, -1.168052520e+04,
                5.052937440e+00]  ),
       NASA(   [1047.45, 5000.0], [4.331087970e+00, 1.441411370e-02,
                -4.800057910e-06, 8.468031940e-10,
                -5.948891730e-14,
                -1.264156350e+04,
                -2.140622760e+00]  )
               ),
        )

species(name = "CC-3",
    atoms = "H:6  C:2", 
    thermo = (
       NASA(   [100.0, 1047.45], [3.657829240e+00, 2.037330050e-03,
                3.433022950e-05, -3.768265150e-08,
                1.238832850e-11, -1.168052520e+04,
                5.746084620e+00]  ),
       NASA(   [1047.45, 5000.0], [4.331087970e+00, 1.441411370e-02,
                -4.800057910e-06, 8.468031940e-10,
                -5.948891730e-14,
                -1.264156350e+04,
                -1.447475580e+00]  )
               ),
        )

species(name = "[CH]=C",
    atoms = "H:3  C:2", 
    thermo = (
       NASA(   [100.0, 3550.2399999999998], [2.675262430e+00, 1.017646160e-02,
                -4.401742620e-06, 1.058549980e-09,
                -9.765220840e-14, 3.482673680e+04,
                1.039972100e+01]  ),
       NASA(   [3550.2399999999998, 5000.0], [-1.048870850e+01, 1.845971610e-02,
                -5.134736410e-06, 6.766523710e-10,
                -3.417500210e-14, 4.830064810e+04,
                9.639930800e+01]  )
               ),
        )

species(name = "[CH]=C-2",
    atoms = "H:3  C:2", 
    thermo = (
       NASA(   [100.0, 3550.2399999999998], [2.675262430e+00, 1.017646160e-02,
                -4.401742620e-06, 1.058549980e-09,
                -9.765220840e-14, 3.482673680e+04,
                1.039972100e+01]  ),
       NASA(   [3550.2399999999998, 5000.0], [-1.048870850e+01, 1.845971610e-02,
                -5.134736410e-06, 6.766523710e-10,
                -3.417500210e-14, 4.830064810e+04,
                9.639930800e+01]  )
               ),
        )

species(name = "[CH]=C-3",
    atoms = "H:3  C:2", 
    thermo = (
       NASA(   [100.0, 3550.2399999999998], [2.675262430e+00, 1.017646160e-02,
                -4.401742620e-06, 1.058549980e-09,
                -9.765220840e-14, 3.482673680e+04,
                1.039972100e+01]  ),
       NASA(   [3550.2399999999998, 5000.0], [-1.048870850e+01, 1.845971610e-02,
                -5.134736410e-06, 6.766523710e-10,
                -3.417500210e-14, 4.830064810e+04,
                9.639930800e+01]  )
               ),
        )

species(name = "[CH]=C-4",
    atoms = "H:3  C:2", 
    thermo = (
       NASA(   [100.0, 3550.2399999999998], [2.675262430e+00, 1.017646160e-02,
                -4.401742620e-06, 1.058549980e-09,
                -9.765220840e-14, 3.482673680e+04,
                1.039972100e+01]  ),
       NASA(   [3550.2399999999998, 5000.0], [-1.048870850e+01, 1.845971610e-02,
                -5.134736410e-06, 6.766523710e-10,
                -3.417500210e-14, 4.830064810e+04,
                9.639930800e+01]  )
               ),
        )

species(name = "C#C",
    atoms = "H:2  C:2", 
    thermo = (
       NASA(   [100.0, 1828.8699999999999], [2.789415370e+00, 1.090448230e-02,
                -8.824550550e-06, 3.737826800e-09,
                -5.910513360e-13, 2.585869850e+04,
                5.384794730e+00]  ),
       NASA(   [1828.8699999999999, 5000.0], [6.198250410e+00, 1.637673930e-03,
                2.613934120e-07, -1.157183550e-10,
                9.735923150e-15, 2.491473720e+04,
                -1.229065970e+01]  )
               ),
        )

species(name = "C#C-2",
    atoms = "H:2  C:2", 
    thermo = (
       NASA(   [100.0, 1828.8699999999999], [2.789415370e+00, 1.090448230e-02,
                -8.824550550e-06, 3.737826800e-09,
                -5.910513360e-13, 2.585869850e+04,
                5.384794730e+00]  ),
       NASA(   [1828.8699999999999, 5000.0], [6.198250410e+00, 1.637673930e-03,
                2.613934120e-07, -1.157183550e-10,
                9.735923150e-15, 2.491473720e+04,
                -1.229065970e+01]  )
               ),
        )

species(name = "C#C-3",
    atoms = "H:2  C:2", 
    thermo = (
       NASA(   [100.0, 1828.8699999999999], [2.789415370e+00, 1.090448230e-02,
                -8.824550550e-06, 3.737826800e-09,
                -5.910513360e-13, 2.585869850e+04,
                6.077941910e+00]  ),
       NASA(   [1828.8699999999999, 5000.0], [6.198250410e+00, 1.637673930e-03,
                2.613934120e-07, -1.157183550e-10,
                9.735923150e-15, 2.491473720e+04,
                -1.159751250e+01]  )
               ),
        )

species(name = "[CH]=CC",
    atoms = "H:5  C:3", 
    thermo = (
       NASA(   [100.0, 3173.6399999999999], [2.378039830e+00, 2.113858640e-02,
                -1.017822100e-05, 2.378808950e-09,
                -2.137890940e-13, 3.051664270e+04,
                1.339243860e+01]  ),
       NASA(   [3173.6399999999999, 5000.0], [7.188487360e+00, 1.030266990e-02,
                -2.800816590e-06, 3.552064920e-10,
                -1.705296850e-14, 2.986696010e+04,
                -1.158379390e+01]  )
               ),
        )

species(name = "[CH]=CC-2",
    atoms = "H:5  C:3", 
    thermo = (
       NASA(   [100.0, 3173.6399999999999], [2.378039830e+00, 2.113858640e-02,
                -1.017822100e-05, 2.378808950e-09,
                -2.137890940e-13, 3.051664270e+04,
                1.339243860e+01]  ),
       NASA(   [3173.6399999999999, 5000.0], [7.188487360e+00, 1.030266990e-02,
                -2.800816590e-06, 3.552064920e-10,
                -1.705296850e-14, 2.986696010e+04,
                -1.158379390e+01]  )
               ),
        )

species(name = "[CH]=CC-3",
    atoms = "H:5  C:3", 
    thermo = (
       NASA(   [100.0, 3173.6399999999999], [2.378039830e+00, 2.113858640e-02,
                -1.017822100e-05, 2.378808950e-09,
                -2.137890940e-13, 3.051664270e+04,
                1.339243860e+01]  ),
       NASA(   [3173.6399999999999, 5000.0], [7.188487360e+00, 1.030266990e-02,
                -2.800816590e-06, 3.552064920e-10,
                -1.705296850e-14, 2.986696010e+04,
                -1.158379390e+01]  )
               ),
        )

species(name = "[CH]=CC-4",
    atoms = "H:5  C:3", 
    thermo = (
       NASA(   [100.0, 3173.6399999999999], [2.378039830e+00, 2.113858640e-02,
                -1.017822100e-05, 2.378808950e-09,
                -2.137890940e-13, 3.051664270e+04,
                1.339243860e+01]  ),
       NASA(   [3173.6399999999999, 5000.0], [7.188487360e+00, 1.030266990e-02,
                -2.800816590e-06, 3.552064920e-10,
                -1.705296850e-14, 2.986696010e+04,
                -1.158379390e+01]  )
               ),
        )

species(name = "[CH]=CC-5",
    atoms = "H:5  C:3", 
    thermo = (
       NASA(   [100.0, 3173.6399999999999], [2.378039830e+00, 2.113858640e-02,
                -1.017822100e-05, 2.378808950e-09,
                -2.137890940e-13, 3.051664270e+04,
                1.339243860e+01]  ),
       NASA(   [3173.6399999999999, 5000.0], [7.188487360e+00, 1.030266990e-02,
                -2.800816590e-06, 3.552064920e-10,
                -1.705296850e-14, 2.986696010e+04,
                -1.158379390e+01]  )
               ),
        )

species(name = "[CH]=CC-6",
    atoms = "H:5  C:3", 
    thermo = (
       NASA(   [100.0, 3173.6399999999999], [2.378039830e+00, 2.113858640e-02,